MODEL 1
REMARK VINA RESULT:      -7.7      0.000      0.000
REMARK  Name = 5742673
REMARK  11 active torsions:
REMARK  status: ('A' for Active; 'I' for Inactive)
REMARK    1  A    between atoms: O_4  and  C_21
REMARK    2  A    between atoms: O_4  and  C_26
REMARK    3  A    between atoms: O_5  and  C_22
REMARK    4  A    between atoms: O_8  and  N_12
REMARK    5  A    between atoms: O_8  and  C_30
REMARK    6  A    between atoms: N_11  and  CA_16
REMARK    7  A    between atoms: CA_18  and  C_22
REMARK    8  A    between atoms: C_19  and  C_21
REMARK    9  A    between atoms: C_23  and  C_24
REMARK   10  A    between atoms: C_24  and  C_25
REMARK   11  A    between atoms: C_26  and  C_28
REMARK                            x       y       z     vdW  Elec       q    Type
REMARK                         _______ _______ _______ _____ _____    ______ ____
ROOT
ATOM      1  S   UNL     1      83.354  83.222  39.417  0.00  0.00    +0.000 S 
ATOM      2  O   UNL     1      80.739  80.015  39.619  0.00  0.00    +0.000 OA
ATOM      3  N   UNL     1      82.992  80.590  39.552  0.00  0.00    +0.000 N 
ATOM      4  C   UNL     1      83.404  81.606  38.584  0.00  0.00    +0.000 C 
ATOM      5  CA  UNL     1      82.139  81.166  37.759  0.00  0.00    +0.000 C 
ATOM      6  C   UNL     1      81.705  80.517  39.110  0.00  0.00    +0.000 C 
ATOM      7  CA  UNL     1      83.516  80.473  40.822  0.00  0.00    +0.000 C 
ATOM      8  C   UNL     1      84.294  81.459  41.360  0.00  0.00    +0.000 C 
ATOM      9  C   UNL     1      84.615  82.754  40.648  0.00  0.00    +0.000 C 
ENDROOT
BRANCH   5  11
ATOM     10  O   UNL     1      81.488  80.940  35.163  0.00  0.00    +0.000 OA
ATOM     11  N   UNL     1      81.373  82.237  37.028  0.00  0.00    +0.000 N 
ATOM     12  C   UNL     1      81.095  81.984  35.686  0.00  0.00    +0.000 C 
ATOM     13  H   UNL     1      80.900  83.006  37.491  0.00  0.00    +0.000 HD
BRANCH  12  15
ATOM     14  N   UNL     1      79.161  82.855  34.252  0.00  0.00    +0.000 NA
ATOM     15  C   UNL     1      80.328  82.978  34.808  0.00  0.00    +0.000 C 
BRANCH  15  19
ATOM     16  S   UNL     1      81.764  86.309  33.183  0.00  0.00    +0.000 S 
ATOM     17  N   UNL     1      82.270  84.543  34.977  0.00  0.00    +0.000 NA
ATOM     18  N   UNL     1      83.980  86.089  34.658  0.00  0.00    +0.000 N 
ATOM     19  C   UNL     1      81.039  84.208  34.427  0.00  0.00    +0.000 A 
ATOM     20  C   UNL     1      80.591  85.095  33.460  0.00  0.00    +0.000 A 
ATOM     21  C   UNL     1      82.768  85.593  34.374  0.00  0.00    +0.000 A 
ATOM     22  H   UNL     1      84.208  87.031  34.372  0.00  0.00    +0.000 HD
ATOM     23  H   UNL     1      84.396  85.783  35.529  0.00  0.00    +0.000 HD
ENDBRANCH  15  19
BRANCH  14  24
ATOM     24  O   UNL     1      78.470  81.662  34.470  0.00  0.00    +0.000 OA
ATOM     25  C   UNL     1      77.431  81.967  35.419  0.00  0.00    +0.000 C 
ENDBRANCH  14  24
ENDBRANCH  12  15
ENDBRANCH   5  11
BRANCH   7  27
ATOM     26  OXT UNL     1      82.676  79.053  42.590  0.00  0.00    +0.000 OA
ATOM     27  C   UNL     1      83.320  79.155  41.554  0.00  0.00    +0.000 C 
BRANCH  27  28
ATOM     28  O   UNL     1      84.032  78.124  41.072  0.00  0.00    +0.000 OA
ATOM     29  H   UNL     1      84.983  78.303  40.914  0.00  0.00    +0.000 HD
ENDBRANCH  27  28
ENDBRANCH   7  27
BRANCH   8  30
ATOM     30  C   UNL     1      84.869  81.406  42.768  0.00  0.00    +0.000 C 
BRANCH  30  31
ATOM     31  O   UNL     1      86.289  81.194  42.720  0.00  0.00    +0.000 OA
BRANCH  31  33
ATOM     32  O   UNL     1      86.654  78.960  42.336  0.00  0.00    +0.000 OA
ATOM     33  C   UNL     1      86.723  79.950  43.049  0.00  0.00    +0.000 C 
ATOM     34  C   UNL     1      87.325  79.963  44.422  0.00  0.00    +0.000 C 
ENDBRANCH  31  33
ENDBRANCH  30  31
ENDBRANCH   8  30
TORSDOF 9
ENDMDL
MODEL 2
REMARK VINA RESULT:      -7.7      7.801     13.688
REMARK  Name = 5742673
REMARK  11 active torsions:
REMARK  status: ('A' for Active; 'I' for Inactive)
REMARK    1  A    between atoms: O_4  and  C_21
REMARK    2  A    between atoms: O_4  and  C_26
REMARK    3  A    between atoms: O_5  and  C_22
REMARK    4  A    between atoms: O_8  and  N_12
REMARK    5  A    between atoms: O_8  and  C_30
REMARK    6  A    between atoms: N_11  and  CA_16
REMARK    7  A    between atoms: CA_18  and  C_22
REMARK    8  A    between atoms: C_19  and  C_21
REMARK    9  A    between atoms: C_23  and  C_24
REMARK   10  A    between atoms: C_24  and  C_25
REMARK   11  A    between atoms: C_26  and  C_28
REMARK                            x       y       z     vdW  Elec       q    Type
REMARK                         _______ _______ _______ _____ _____    ______ ____
ROOT
ATOM      1  S   UNL     1      88.818  81.570  46.362  0.00  0.00    +0.000 S 
ATOM      2  O   UNL     1      90.948  80.919  42.868  0.00  0.00    +0.000 OA
ATOM      3  N   UNL     1      89.297  80.029  44.246  0.00  0.00    +0.000 N 
ATOM      4  C   UNL     1      89.539  80.042  45.688  0.00  0.00    +0.000 C 
ATOM      5  CA  UNL     1      91.067  80.055  45.314  0.00  0.00    +0.000 C 
ATOM      6  C   UNL     1      90.537  80.486  43.912  0.00  0.00    +0.000 C 
ATOM      7  CA  UNL     1      88.067  80.256  43.666  0.00  0.00    +0.000 C 
ATOM      8  C   UNL     1      87.023  80.754  44.393  0.00  0.00    +0.000 C 
ATOM      9  C   UNL     1      87.123  81.128  45.855  0.00  0.00    +0.000 C 
ENDROOT
BRANCH   5  11
ATOM     10  O   UNL     1      93.696  79.531  45.488  0.00  0.00    +0.000 OA
ATOM     11  N   UNL     1      91.993  80.870  46.179  0.00  0.00    +0.000 N 
ATOM     12  C   UNL     1      93.334  80.493  46.166  0.00  0.00    +0.000 C 
ATOM     13  H   UNL     1      91.736  81.760  46.593  0.00  0.00    +0.000 HD
BRANCH  12  15
ATOM     14  N   UNL     1      95.303  82.070  46.609  0.00  0.00    +0.000 NA
ATOM     15  C   UNL     1      94.396  81.223  46.995  0.00  0.00    +0.000 C 
BRANCH  15  19
ATOM     16  S   UNL     1      95.402  79.960  50.627  0.00  0.00    +0.000 S 
ATOM     17  N   UNL     1      93.390  80.728  49.229  0.00  0.00    +0.000 NA
ATOM     18  N   UNL     1      92.830  79.953  51.350  0.00  0.00    +0.000 N 
ATOM     19  C   UNL     1      94.507  80.840  48.411  0.00  0.00    +0.000 A 
ATOM     20  C   UNL     1      95.700  80.502  49.032  0.00  0.00    +0.000 A 
ATOM     21  C   UNL     1      93.725  80.233  50.393  0.00  0.00    +0.000 A 
ATOM     22  H   UNL     1      93.147  79.830  52.302  0.00  0.00    +0.000 HD
ATOM     23  H   UNL     1      91.915  80.373  51.244  0.00  0.00    +0.000 HD
ENDBRANCH  15  19
BRANCH  14  24
ATOM     24  O   UNL     1      95.339  82.396  45.253  0.00  0.00    +0.000 OA
ATOM     25  C   UNL     1      94.968  83.784  45.163  0.00  0.00    +0.000 C 
ENDBRANCH  14  24
ENDBRANCH  12  15
ENDBRANCH   5  11
BRANCH   7  27
ATOM     26  OXT UNL     1      88.238  80.460  41.262  0.00  0.00    +0.000 OA
ATOM     27  C   UNL     1      87.865  79.806  42.228  0.00  0.00    +0.000 C 
BRANCH  27  28
ATOM     28  O   UNL     1      87.108  78.708  42.075  0.00  0.00    +0.000 OA
ATOM     29  H   UNL     1      87.251  78.000  42.739  0.00  0.00    +0.000 HD
ENDBRANCH  27  28
ENDBRANCH   7  27
BRANCH   8  30
ATOM     30  C   UNL     1      85.654  81.061  43.802  0.00  0.00    +0.000 C 
BRANCH  30  31
ATOM     31  O   UNL     1      84.867  79.863  43.716  0.00  0.00    +0.000 OA
BRANCH  31  33
ATOM     32  O   UNL     1      83.222  78.874  42.458  0.00  0.00    +0.000 OA
ATOM     33  C   UNL     1      84.045  79.758  42.640  0.00  0.00    +0.000 C 
ATOM     34  C   UNL     1      84.279  80.903  41.702  0.00  0.00    +0.000 C 
ENDBRANCH  31  33
ENDBRANCH  30  31
ENDBRANCH   8  30
TORSDOF 9
ENDMDL
MODEL 3
REMARK VINA RESULT:      -7.6      2.019      3.330
REMARK  Name = 5742673
REMARK  11 active torsions:
REMARK  status: ('A' for Active; 'I' for Inactive)
REMARK    1  A    between atoms: O_4  and  C_21
REMARK    2  A    between atoms: O_4  and  C_26
REMARK    3  A    between atoms: O_5  and  C_22
REMARK    4  A    between atoms: O_8  and  N_12
REMARK    5  A    between atoms: O_8  and  C_30
REMARK    6  A    between atoms: N_11  and  CA_16
REMARK    7  A    between atoms: CA_18  and  C_22
REMARK    8  A    between atoms: C_19  and  C_21
REMARK    9  A    between atoms: C_23  and  C_24
REMARK   10  A    between atoms: C_24  and  C_25
REMARK   11  A    between atoms: C_26  and  C_28
REMARK                            x       y       z     vdW  Elec       q    Type
REMARK                         _______ _______ _______ _____ _____    ______ ____
ROOT
ATOM      1  S   UNL     1      82.996  83.049  39.017  0.00  0.00    +0.000 S 
ATOM      2  O   UNL     1      80.498  79.854  39.865  0.00  0.00    +0.000 OA
ATOM      3  N   UNL     1      82.712  80.439  39.452  0.00  0.00    +0.000 N 
ATOM      4  C   UNL     1      82.974  81.358  38.345  0.00  0.00    +0.000 C 
ATOM      5  CA  UNL     1      81.623  80.828  37.737  0.00  0.00    +0.000 C 
ATOM      6  C   UNL     1      81.380  80.312  39.189  0.00  0.00    +0.000 C 
ATOM      7  CA  UNL     1      83.396  80.453  40.648  0.00  0.00    +0.000 C 
ATOM      8  C   UNL     1      84.215  81.494  40.983  0.00  0.00    +0.000 C 
ATOM      9  C   UNL     1      84.415  82.716  40.114  0.00  0.00    +0.000 C 
ENDROOT
BRANCH   5  11
ATOM     10  O   UNL     1      80.211  80.153  35.554  0.00  0.00    +0.000 OA
ATOM     11  N   UNL     1      80.748  81.816  37.011  0.00  0.00    +0.000 N 
ATOM     12  C   UNL     1      80.064  81.326  35.900  0.00  0.00    +0.000 C 
ATOM     13  H   UNL     1      80.487  82.721  37.389  0.00  0.00    +0.000 HD
BRANCH  12  15
ATOM     14  N   UNL     1      79.423  82.960  34.035  0.00  0.00    +0.000 NA
ATOM     15  C   UNL     1      79.138  82.209  35.056  0.00  0.00    +0.000 C 
BRANCH  15  19
ATOM     16  S   UNL     1      75.309  83.047  35.716  0.00  0.00    +0.000 S 
ATOM     17  N   UNL     1      77.347  81.897  36.772  0.00  0.00    +0.000 NA
ATOM     18  N   UNL     1      75.495  82.021  38.175  0.00  0.00    +0.000 N 
ATOM     19  C   UNL     1      77.747  82.336  35.516  0.00  0.00    +0.000 A 
ATOM     20  C   UNL     1      76.741  82.949  34.784  0.00  0.00    +0.000 A 
ATOM     21  C   UNL     1      76.110  82.253  37.008  0.00  0.00    +0.000 A 
ATOM     22  H   UNL     1      74.486  82.067  38.219  0.00  0.00    +0.000 HD
ATOM     23  H   UNL     1      75.929  81.334  38.780  0.00  0.00    +0.000 HD
ENDBRANCH  15  19
BRANCH  14  24
ATOM     24  O   UNL     1      80.751  82.985  33.609  0.00  0.00    +0.000 OA
ATOM     25  C   UNL     1      81.284  84.255  34.028  0.00  0.00    +0.000 C 
ENDBRANCH  14  24
ENDBRANCH  12  15
ENDBRANCH   5  11
BRANCH   7  27
ATOM     26  OXT UNL     1      82.761  79.190  42.610  0.00  0.00    +0.000 OA
ATOM     27  C   UNL     1      83.324  79.212  41.523  0.00  0.00    +0.000 C 
BRANCH  27  28
ATOM     28  O   UNL     1      84.055  78.170  41.097  0.00  0.00    +0.000 OA
ATOM     29  H   UNL     1      84.206  77.461  41.757  0.00  0.00    +0.000 HD
ENDBRANCH  27  28
ENDBRANCH   7  27
BRANCH   8  30
ATOM     30  C   UNL     1      84.967  81.586  42.304  0.00  0.00    +0.000 C 
BRANCH  30  31
ATOM     31  O   UNL     1      86.318  81.126  42.142  0.00  0.00    +0.000 OA
BRANCH  31  33
ATOM     32  O   UNL     1      86.731  78.882  42.396  0.00  0.00    +0.000 OA
ATOM     33  C   UNL     1      86.665  80.017  42.845  0.00  0.00    +0.000 C 
ATOM     34  C   UNL     1      86.977  80.385  44.263  0.00  0.00    +0.000 C 
ENDBRANCH  31  33
ENDBRANCH  30  31
ENDBRANCH   8  30
TORSDOF 9
ENDMDL
MODEL 4
REMARK VINA RESULT:      -7.6      4.387      9.783
REMARK  Name = 5742673
REMARK  11 active torsions:
REMARK  status: ('A' for Active; 'I' for Inactive)
REMARK    1  A    between atoms: O_4  and  C_21
REMARK    2  A    between atoms: O_4  and  C_26
REMARK    3  A    between atoms: O_5  and  C_22
REMARK    4  A    between atoms: O_8  and  N_12
REMARK    5  A    between atoms: O_8  and  C_30
REMARK    6  A    between atoms: N_11  and  CA_16
REMARK    7  A    between atoms: CA_18  and  C_22
REMARK    8  A    between atoms: C_19  and  C_21
REMARK    9  A    between atoms: C_23  and  C_24
REMARK   10  A    between atoms: C_24  and  C_25
REMARK   11  A    between atoms: C_26  and  C_28
REMARK                            x       y       z     vdW  Elec       q    Type
REMARK                         _______ _______ _______ _____ _____    ______ ____
ROOT
ATOM      1  S   UNL     1      86.172  81.806  41.619  0.00  0.00    +0.000 S 
ATOM      2  O   UNL     1      83.751  78.464  41.985  0.00  0.00    +0.000 OA
ATOM      3  N   UNL     1      83.795  80.777  42.230  0.00  0.00    +0.000 N 
ATOM      4  C   UNL     1      84.955  81.366  42.898  0.00  0.00    +0.000 C 
ATOM      5  CA  UNL     1      85.109  79.970  43.607  0.00  0.00    +0.000 C 
ATOM      6  C   UNL     1      84.163  79.486  42.465  0.00  0.00    +0.000 C 
ATOM      7  CA  UNL     1      83.149  81.348  41.154  0.00  0.00    +0.000 C 
ATOM      8  C   UNL     1      83.701  82.396  40.473  0.00  0.00    +0.000 C 
ATOM      9  C   UNL     1      85.052  82.991  40.802  0.00  0.00    +0.000 C 
ENDROOT
BRANCH   5  11
ATOM     10  O   UNL     1      86.577  80.765  45.711  0.00  0.00    +0.000 OA
ATOM     11  N   UNL     1      86.505  79.459  43.850  0.00  0.00    +0.000 N 
ATOM     12  C   UNL     1      87.147  79.948  44.986  0.00  0.00    +0.000 C 
ATOM     13  H   UNL     1      86.906  78.664  43.363  0.00  0.00    +0.000 HD
BRANCH  12  15
ATOM     14  N   UNL     1      89.014  79.052  46.492  0.00  0.00    +0.000 NA
ATOM     15  C   UNL     1      88.570  79.526  45.367  0.00  0.00    +0.000 C 
BRANCH  15  19
ATOM     16  S   UNL     1      91.765  80.625  43.273  0.00  0.00    +0.000 S 
ATOM     17  N   UNL     1      89.414  79.623  43.016  0.00  0.00    +0.000 NA
ATOM     18  N   UNL     1      90.473  80.089  40.997  0.00  0.00    +0.000 N 
ATOM     19  C   UNL     1      89.625  79.794  44.379  0.00  0.00    +0.000 A 
ATOM     20  C   UNL     1      90.880  80.292  44.699  0.00  0.00    +0.000 A 
ATOM     21  C   UNL     1      90.441  80.067  42.336  0.00  0.00    +0.000 A 
ATOM     22  H   UNL     1      91.362  80.183  40.526  0.00  0.00    +0.000 HD
ATOM     23  H   UNL     1      89.784  79.518  40.523  0.00  0.00    +0.000 HD
ENDBRANCH  15  19
BRANCH  14  24
ATOM     24  O   UNL     1      88.091  78.878  47.523  0.00  0.00    +0.000 OA
ATOM     25  C   UNL     1      88.532  79.721  48.603  0.00  0.00    +0.000 C 
ENDBRANCH  14  24
ENDBRANCH  12  15
ENDBRANCH   5  11
BRANCH   7  27
ATOM     26  OXT UNL     1      81.452  80.296  39.790  0.00  0.00    +0.000 OA
ATOM     27  C   UNL     1      81.743  80.870  40.832  0.00  0.00    +0.000 C 
BRANCH  27  28
ATOM     28  O   UNL     1      80.797  81.254  41.704  0.00  0.00    +0.000 OA
ATOM     29  H   UNL     1      79.941  81.524  41.307  0.00  0.00    +0.000 HD
ENDBRANCH  27  28
ENDBRANCH   7  27
BRANCH   8  30
ATOM     30  C   UNL     1      83.057  83.044  39.255  0.00  0.00    +0.000 C 
BRANCH  30  31
ATOM     31  O   UNL     1      83.946  82.986  38.129  0.00  0.00    +0.000 OA
BRANCH  31  33
ATOM     32  O   UNL     1      84.147  81.846  36.147  0.00  0.00    +0.000 OA
ATOM     33  C   UNL     1      83.468  82.375  37.014  0.00  0.00    +0.000 C 
ATOM     34  C   UNL     1      81.971  82.425  37.005  0.00  0.00    +0.000 C 
ENDBRANCH  31  33
ENDBRANCH  30  31
ENDBRANCH   8  30
TORSDOF 9
ENDMDL
MODEL 5
REMARK VINA RESULT:      -7.5      8.521     14.496
REMARK  Name = 5742673
REMARK  11 active torsions:
REMARK  status: ('A' for Active; 'I' for Inactive)
REMARK    1  A    between atoms: O_4  and  C_21
REMARK    2  A    between atoms: O_4  and  C_26
REMARK    3  A    between atoms: O_5  and  C_22
REMARK    4  A    between atoms: O_8  and  N_12
REMARK    5  A    between atoms: O_8  and  C_30
REMARK    6  A    between atoms: N_11  and  CA_16
REMARK    7  A    between atoms: CA_18  and  C_22
REMARK    8  A    between atoms: C_19  and  C_21
REMARK    9  A    between atoms: C_23  and  C_24
REMARK   10  A    between atoms: C_24  and  C_25
REMARK   11  A    between atoms: C_26  and  C_28
REMARK                            x       y       z     vdW  Elec       q    Type
REMARK                         _______ _______ _______ _____ _____    ______ ____
ROOT
ATOM      1  S   UNL     1      90.507  81.102  45.688  0.00  0.00    +0.000 S 
ATOM      2  O   UNL     1      88.496  79.026  48.657  0.00  0.00    +0.000 OA
ATOM      3  N   UNL     1      88.206  80.503  46.882  0.00  0.00    +0.000 N 
ATOM      4  C   UNL     1      89.142  81.622  46.773  0.00  0.00    +0.000 C 
ATOM      5  CA  UNL     1      89.337  81.460  48.325  0.00  0.00    +0.000 C 
ATOM      6  C   UNL     1      88.683  80.065  48.082  0.00  0.00    +0.000 C 
ATOM      7  CA  UNL     1      87.702  79.807  45.805  0.00  0.00    +0.000 C 
ATOM      8  C   UNL     1      88.234  79.956  44.555  0.00  0.00    +0.000 C 
ATOM      9  C   UNL     1      89.417  80.846  44.249  0.00  0.00    +0.000 C 
ENDROOT
BRANCH   5  11
ATOM     10  O   UNL     1      89.906  83.527  49.943  0.00  0.00    +0.000 OA
ATOM     11  N   UNL     1      90.717  81.684  48.884  0.00  0.00    +0.000 N 
ATOM     12  C   UNL     1      90.868  82.791  49.719  0.00  0.00    +0.000 C 
ATOM     13  H   UNL     1      91.458  80.992  48.847  0.00  0.00    +0.000 HD
BRANCH  12  15
ATOM     14  N   UNL     1      93.129  83.972  49.943  0.00  0.00    +0.000 NA
ATOM     15  C   UNL     1      92.211  83.153  50.361  0.00  0.00    +0.000 C 
BRANCH  15  19
ATOM     16  S   UNL     1      93.569  81.760  53.827  0.00  0.00    +0.000 S 
ATOM     17  N   UNL     1      92.565  81.004  51.588  0.00  0.00    +0.000 NA
ATOM     18  N   UNL     1      93.253  79.254  52.958  0.00  0.00    +0.000 N 
ATOM     19  C   UNL     1      92.597  82.393  51.560  0.00  0.00    +0.000 A 
ATOM     20  C   UNL     1      93.077  82.972  52.724  0.00  0.00    +0.000 A 
ATOM     21  C   UNL     1      93.092  80.559  52.700  0.00  0.00    +0.000 A 
ATOM     22  H   UNL     1      93.409  78.954  53.911  0.00  0.00    +0.000 HD
ATOM     23  H   UNL     1      92.723  78.614  52.379  0.00  0.00    +0.000 HD
ENDBRANCH  15  19
BRANCH  14  24
ATOM     24  O   UNL     1      92.888  84.647  48.746  0.00  0.00    +0.000 OA
ATOM     25  C   UNL     1      93.853  84.147  47.802  0.00  0.00    +0.000 C 
ENDBRANCH  14  24
ENDBRANCH  12  15
ENDBRANCH   5  11
BRANCH   7  27
ATOM     26  OXT UNL     1      85.316  79.432  45.932  0.00  0.00    +0.000 OA
ATOM     27  C   UNL     1      86.448  78.974  46.019  0.00  0.00    +0.000 C 
BRANCH  27  28
ATOM     28  O   UNL     1      86.663  77.726  46.466  0.00  0.00    +0.000 OA
ATOM     29  H   UNL     1      86.036  77.046  46.139  0.00  0.00    +0.000 HD
ENDBRANCH  27  28
ENDBRANCH   7  27
BRANCH   8  30
ATOM     30  C   UNL     1      87.747  79.188  43.334  0.00  0.00    +0.000 C 
BRANCH  30  31
ATOM     31  O   UNL     1      87.103  80.078  42.409  0.00  0.00    +0.000 OA
BRANCH  31  33
ATOM     32  O   UNL     1      84.962  79.268  42.238  0.00  0.00    +0.000 OA
ATOM     33  C   UNL     1      85.750  80.164  42.498  0.00  0.00    +0.000 C 
ATOM     34  C   UNL     1      85.354  81.525  42.985  0.00  0.00    +0.000 C 
ENDBRANCH  31  33
ENDBRANCH  30  31
ENDBRANCH   8  30
TORSDOF 9
ENDMDL
MODEL 6
REMARK VINA RESULT:      -7.4      3.270      6.221
REMARK  Name = 5742673
REMARK  11 active torsions:
REMARK  status: ('A' for Active; 'I' for Inactive)
REMARK    1  A    between atoms: O_4  and  C_21
REMARK    2  A    between atoms: O_4  and  C_26
REMARK    3  A    between atoms: O_5  and  C_22
REMARK    4  A    between atoms: O_8  and  N_12
REMARK    5  A    between atoms: O_8  and  C_30
REMARK    6  A    between atoms: N_11  and  CA_16
REMARK    7  A    between atoms: CA_18  and  C_22
REMARK    8  A    between atoms: C_19  and  C_21
REMARK    9  A    between atoms: C_23  and  C_24
REMARK   10  A    between atoms: C_24  and  C_25
REMARK   11  A    between atoms: C_26  and  C_28
REMARK                            x       y       z     vdW  Elec       q    Type
REMARK                         _______ _______ _______ _____ _____    ______ ____
ROOT
ATOM      1  S   UNL     1      85.055  79.375  44.515  0.00  0.00    +0.000 S 
ATOM      2  O   UNL     1      87.940  79.789  41.570  0.00  0.00    +0.000 OA
ATOM      3  N   UNL     1      87.250  80.599  43.639  0.00  0.00    +0.000 N 
ATOM      4  C   UNL     1      85.824  80.870  43.819  0.00  0.00    +0.000 C 
ATOM      5  CA  UNL     1      85.782  81.058  42.258  0.00  0.00    +0.000 C 
ATOM      6  C   UNL     1      87.151  80.313  42.310  0.00  0.00    +0.000 C 
ATOM      7  CA  UNL     1      88.067  80.070  44.616  0.00  0.00    +0.000 C 
ATOM      8  C   UNL     1      87.545  79.529  45.757  0.00  0.00    +0.000 C 
ATOM      9  C   UNL     1      86.062  79.427  46.034  0.00  0.00    +0.000 C 
ENDROOT
BRANCH   5  11
ATOM     10  O   UNL     1      84.366  82.647  40.618  0.00  0.00    +0.000 OA
ATOM     11  N   UNL     1      84.558  80.571  41.528  0.00  0.00    +0.000 N 
ATOM     12  C   UNL     1      83.927  81.499  40.702  0.00  0.00    +0.000 C 
ATOM     13  H   UNL     1      84.299  79.592  41.455  0.00  0.00    +0.000 HD
BRANCH  12  15
ATOM     14  N   UNL     1      81.597  80.527  40.274  0.00  0.00    +0.000 NA
ATOM     15  C   UNL     1      82.670  81.155  39.896  0.00  0.00    +0.000 C 
BRANCH  15  19
ATOM     16  S   UNL     1      83.321  82.466  36.201  0.00  0.00    +0.000 S 
ATOM     17  N   UNL     1      81.661  81.105  37.610  0.00  0.00    +0.000 NA
ATOM     18  N   UNL     1      80.960  81.486  35.424  0.00  0.00    +0.000 N 
ATOM     19  C   UNL     1      82.702  81.461  38.458  0.00  0.00    +0.000 A 
ATOM     20  C   UNL     1      83.718  82.172  37.839  0.00  0.00    +0.000 A 
ATOM     21  C   UNL     1      81.849  81.614  36.418  0.00  0.00    +0.000 A 
ATOM     22  H   UNL     1      81.257  81.655  34.472  0.00  0.00    +0.000 HD
ATOM     23  H   UNL     1      80.256  80.768  35.542  0.00  0.00    +0.000 HD
ENDBRANCH  15  19
BRANCH  14  24
ATOM     24  O   UNL     1      81.539  80.098  41.601  0.00  0.00    +0.000 OA
ATOM     25  C   UNL     1      80.154  80.164  41.985  0.00  0.00    +0.000 C 
ENDBRANCH  14  24
ENDBRANCH  12  15
ENDBRANCH   5  11
BRANCH   7  27
ATOM     26  OXT UNL     1      90.184  81.217  44.838  0.00  0.00    +0.000 OA
ATOM     27  C   UNL     1      89.569  80.231  44.451  0.00  0.00    +0.000 C 
BRANCH  27  28
ATOM     28  O   UNL     1      90.166  79.284  43.710  0.00  0.00    +0.000 OA
ATOM     29  H   UNL     1      89.931  79.280  42.759  0.00  0.00    +0.000 HD
ENDBRANCH  27  28
ENDBRANCH   7  27
BRANCH   8  30
ATOM     30  C   UNL     1      88.391  78.895  46.853  0.00  0.00    +0.000 C 
BRANCH  30  31
ATOM     31  O   UNL     1      87.762  79.071  48.133  0.00  0.00    +0.000 OA
BRANCH  31  33
ATOM     32  O   UNL     1      87.103  80.893  49.362  0.00  0.00    +0.000 OA
ATOM     33  C   UNL     1      87.948  80.273  48.736  0.00  0.00    +0.000 C 
ATOM     34  C   UNL     1      89.362  80.732  48.540  0.00  0.00    +0.000 C 
ENDBRANCH  31  33
ENDBRANCH  30  31
ENDBRANCH   8  30
TORSDOF 9
ENDMDL
MODEL 7
REMARK VINA RESULT:      -7.4      7.603     13.062
REMARK  Name = 5742673
REMARK  11 active torsions:
REMARK  status: ('A' for Active; 'I' for Inactive)
REMARK    1  A    between atoms: O_4  and  C_21
REMARK    2  A    between atoms: O_4  and  C_26
REMARK    3  A    between atoms: O_5  and  C_22
REMARK    4  A    between atoms: O_8  and  N_12
REMARK    5  A    between atoms: O_8  and  C_30
REMARK    6  A    between atoms: N_11  and  CA_16
REMARK    7  A    between atoms: CA_18  and  C_22
REMARK    8  A    between atoms: C_19  and  C_21
REMARK    9  A    between atoms: C_23  and  C_24
REMARK   10  A    between atoms: C_24  and  C_25
REMARK   11  A    between atoms: C_26  and  C_28
REMARK                            x       y       z     vdW  Elec       q    Type
REMARK                         _______ _______ _______ _____ _____    ______ ____
ROOT
ATOM      1  S   UNL     1      88.871  81.596  46.338  0.00  0.00    +0.000 S 
ATOM      2  O   UNL     1      90.955  80.939  42.818  0.00  0.00    +0.000 OA
ATOM      3  N   UNL     1      89.329  80.047  44.224  0.00  0.00    +0.000 N 
ATOM      4  C   UNL     1      89.592  80.069  45.662  0.00  0.00    +0.000 C 
ATOM      5  CA  UNL     1      91.114  80.089  45.266  0.00  0.00    +0.000 C 
ATOM      6  C   UNL     1      90.561  80.510  43.870  0.00  0.00    +0.000 C 
ATOM      7  CA  UNL     1      88.090  80.263  43.659  0.00  0.00    +0.000 C 
ATOM      8  C   UNL     1      87.053  80.758  44.398  0.00  0.00    +0.000 C 
ATOM      9  C   UNL     1      87.171  81.141  45.857  0.00  0.00    +0.000 C 
ENDROOT
BRANCH   5  11
ATOM     10  O   UNL     1      93.735  79.535  45.466  0.00  0.00    +0.000 OA
ATOM     11  N   UNL     1      92.046  80.915  46.113  0.00  0.00    +0.000 N 
ATOM     12  C   UNL     1      93.383  80.520  46.117  0.00  0.00    +0.000 C 
ATOM     13  H   UNL     1      91.800  81.819  46.503  0.00  0.00    +0.000 HD
BRANCH  12  15
ATOM     14  N   UNL     1      94.918  80.985  48.113  0.00  0.00    +0.000 NA
ATOM     15  C   UNL     1      94.451  81.258  46.931  0.00  0.00    +0.000 C 
BRANCH  15  19
ATOM     16  S   UNL     1      95.198  84.989  45.785  0.00  0.00    +0.000 S 
ATOM     17  N   UNL     1      95.879  82.554  45.341  0.00  0.00    +0.000 NA
ATOM     18  N   UNL     1      96.841  84.089  43.881  0.00  0.00    +0.000 N 
ATOM     19  C   UNL     1      94.950  82.524  46.374  0.00  0.00    +0.000 A 
ATOM     20  C   UNL     1      94.506  83.775  46.773  0.00  0.00    +0.000 A 
ATOM     21  C   UNL     1      96.052  83.781  44.919  0.00  0.00    +0.000 A 
ATOM     22  H   UNL     1      97.150  85.044  43.762  0.00  0.00    +0.000 HD
ATOM     23  H   UNL     1      97.500  83.376  43.592  0.00  0.00    +0.000 HD
ENDBRANCH  15  19
BRANCH  14  24
ATOM     24  O   UNL     1      94.406  79.860  48.761  0.00  0.00    +0.000 OA
ATOM     25  C   UNL     1      93.566  80.355  49.820  0.00  0.00    +0.000 C 
ENDBRANCH  14  24
ENDBRANCH  12  15
ENDBRANCH   5  11
BRANCH   7  27
ATOM     26  OXT UNL     1      88.205  80.465  41.252  0.00  0.00    +0.000 OA
ATOM     27  C   UNL     1      87.871  79.804  42.227  0.00  0.00    +0.000 C 
BRANCH  27  28
ATOM     28  O   UNL     1      87.142  78.684  42.092  0.00  0.00    +0.000 OA
ATOM     29  H   UNL     1      87.283  78.185  41.260  0.00  0.00    +0.000 HD
ENDBRANCH  27  28
ENDBRANCH   7  27
BRANCH   8  30
ATOM     30  C   UNL     1      85.674  81.054  43.825  0.00  0.00    +0.000 C 
BRANCH  30  31
ATOM     31  O   UNL     1      84.884  79.855  43.783  0.00  0.00    +0.000 OA
BRANCH  31  33
ATOM     32  O   UNL     1      83.295  78.782  42.520  0.00  0.00    +0.000 OA
ATOM     33  C   UNL     1      84.073  79.706  42.703  0.00  0.00    +0.000 C 
ATOM     34  C   UNL     1      84.255  80.857  41.762  0.00  0.00    +0.000 C 
ENDBRANCH  31  33
ENDBRANCH  30  31
ENDBRANCH   8  30
TORSDOF 9
ENDMDL
MODEL 8
REMARK VINA RESULT:      -7.2      4.527      7.392
REMARK  Name = 5742673
REMARK  11 active torsions:
REMARK  status: ('A' for Active; 'I' for Inactive)
REMARK    1  A    between atoms: O_4  and  C_21
REMARK    2  A    between atoms: O_4  and  C_26
REMARK    3  A    between atoms: O_5  and  C_22
REMARK    4  A    between atoms: O_8  and  N_12
REMARK    5  A    between atoms: O_8  and  C_30
REMARK    6  A    between atoms: N_11  and  CA_16
REMARK    7  A    between atoms: CA_18  and  C_22
REMARK    8  A    between atoms: C_19  and  C_21
REMARK    9  A    between atoms: C_23  and  C_24
REMARK   10  A    between atoms: C_24  and  C_25
REMARK   11  A    between atoms: C_26  and  C_28
REMARK                            x       y       z     vdW  Elec       q    Type
REMARK                         _______ _______ _______ _____ _____    ______ ____
ROOT
ATOM      1  S   UNL     1      87.899  80.488  42.014  0.00  0.00    +0.000 S 
ATOM      2  O   UNL     1      85.998  81.303  45.605  0.00  0.00    +0.000 OA
ATOM      3  N   UNL     1      87.232  79.693  44.464  0.00  0.00    +0.000 N 
ATOM      4  C   UNL     1      86.872  79.423  43.073  0.00  0.00    +0.000 C 
ATOM      5  CA  UNL     1      85.439  79.941  43.465  0.00  0.00    +0.000 C 
ATOM      6  C   UNL     1      86.188  80.536  44.698  0.00  0.00    +0.000 C 
ATOM      7  CA  UNL     1      88.526  79.708  44.940  0.00  0.00    +0.000 C 
ATOM      8  C   UNL     1      89.593  79.712  44.087  0.00  0.00    +0.000 C 
ATOM      9  C   UNL     1      89.461  79.736  42.580  0.00  0.00    +0.000 C 
ENDROOT
BRANCH   5  11
ATOM     10  O   UNL     1      83.481  78.871  41.970  0.00  0.00    +0.000 OA
ATOM     11  N   UNL     1      84.681  80.745  42.441  0.00  0.00    +0.000 N 
ATOM     12  C   UNL     1      83.684  80.065  41.744  0.00  0.00    +0.000 C 
ATOM     13  H   UNL     1      84.722  81.757  42.378  0.00  0.00    +0.000 HD
BRANCH  12  15
ATOM     14  N   UNL     1      83.129  81.737  39.886  0.00  0.00    +0.000 NA
ATOM     15  C   UNL     1      82.830  80.744  40.669  0.00  0.00    +0.000 C 
BRANCH  15  19
ATOM     16  S   UNL     1      79.126  79.726  39.650  0.00  0.00    +0.000 S 
ATOM     17  N   UNL     1      80.610  80.210  41.688  0.00  0.00    +0.000 NA
ATOM     18  N   UNL     1      78.367  79.877  42.206  0.00  0.00    +0.000 N 
ATOM     19  C   UNL     1      81.428  80.312  40.569  0.00  0.00    +0.000 A 
ATOM     20  C   UNL     1      80.785  80.035  39.372  0.00  0.00    +0.000 A 
ATOM     21  C   UNL     1      79.377  79.956  41.330  0.00  0.00    +0.000 A 
ATOM     22  H   UNL     1      77.506  79.425  41.928  0.00  0.00    +0.000 HD
ATOM     23  H   UNL     1      78.626  79.766  43.179  0.00  0.00    +0.000 HD
ENDBRANCH  15  19
BRANCH  14  24
ATOM     24  O   UNL     1      84.408  82.282  40.003  0.00  0.00    +0.000 OA
ATOM     25  C   UNL     1      84.436  83.432  39.137  0.00  0.00    +0.000 C 
ENDBRANCH  14  24
ENDBRANCH  12  15
ENDBRANCH   5  11
BRANCH   7  27
ATOM     26  OXT UNL     1      88.368  78.608  47.087  0.00  0.00    +0.000 OA
ATOM     27  C   UNL     1      88.734  79.580  46.440  0.00  0.00    +0.000 C 
BRANCH  27  28
ATOM     28  O   UNL     1      89.214  80.679  47.045  0.00  0.00    +0.000 OA
ATOM     29  H   UNL     1      89.387  81.444  46.456  0.00  0.00    +0.000 HD
ENDBRANCH  27  28
ENDBRANCH   7  27
BRANCH   8  30
ATOM     30  C   UNL     1      91.043  79.768  44.548  0.00  0.00    +0.000 C 
BRANCH  30  31
ATOM     31  O   UNL     1      91.433  81.126  44.805  0.00  0.00    +0.000 OA
BRANCH  31  33
ATOM     32  O   UNL     1      93.688  81.537  44.923  0.00  0.00    +0.000 OA
ATOM     33  C   UNL     1      92.635  81.512  44.305  0.00  0.00    +0.000 C 
ATOM     34  C   UNL     1      92.492  81.892  42.862  0.00  0.00    +0.000 C 
ENDBRANCH  31  33
ENDBRANCH  30  31
ENDBRANCH   8  30
TORSDOF 9
ENDMDL
MODEL 9
REMARK VINA RESULT:      -7.1     10.343     15.344
REMARK  Name = 5742673
REMARK  11 active torsions:
REMARK  status: ('A' for Active; 'I' for Inactive)
REMARK    1  A    between atoms: O_4  and  C_21
REMARK    2  A    between atoms: O_4  and  C_26
REMARK    3  A    between atoms: O_5  and  C_22
REMARK    4  A    between atoms: O_8  and  N_12
REMARK    5  A    between atoms: O_8  and  C_30
REMARK    6  A    between atoms: N_11  and  CA_16
REMARK    7  A    between atoms: CA_18  and  C_22
REMARK    8  A    between atoms: C_19  and  C_21
REMARK    9  A    between atoms: C_23  and  C_24
REMARK   10  A    between atoms: C_24  and  C_25
REMARK   11  A    between atoms: C_26  and  C_28
REMARK                            x       y       z     vdW  Elec       q    Type
REMARK                         _______ _______ _______ _____ _____    ______ ____
ROOT
ATOM      1  S   UNL     1      91.784  81.618  46.380  0.00  0.00    +0.000 S 
ATOM      2  O   UNL     1      89.273  79.551  48.946  0.00  0.00    +0.000 OA
ATOM      3  N   UNL     1      89.306  81.010  47.133  0.00  0.00    +0.000 N 
ATOM      4  C   UNL     1      90.238  82.135  47.187  0.00  0.00    +0.000 C 
ATOM      5  CA  UNL     1      90.143  81.990  48.750  0.00  0.00    +0.000 C 
ATOM      6  C   UNL     1      89.556  80.587  48.405  0.00  0.00    +0.000 C 
ATOM      7  CA  UNL     1      89.015  80.299  45.988  0.00  0.00    +0.000 C 
ATOM      8  C   UNL     1      89.768  80.441  44.857  0.00  0.00    +0.000 C 
ATOM      9  C   UNL     1      90.982  81.339  44.766  0.00  0.00    +0.000 C 
ENDROOT
BRANCH   5  11
ATOM     10  O   UNL     1      90.191  83.655  50.857  0.00  0.00    +0.000 OA
ATOM     11  N   UNL     1      91.394  82.232  49.553  0.00  0.00    +0.000 N 
ATOM     12  C   UNL     1      91.272  83.113  50.626  0.00  0.00    +0.000 C 
ATOM     13  H   UNL     1      92.229  81.661  49.478  0.00  0.00    +0.000 HD
BRANCH  12  15
ATOM     14  N   UNL     1      92.938  84.629  51.845  0.00  0.00    +0.000 NA
ATOM     15  C   UNL     1      92.456  83.463  51.534  0.00  0.00    +0.000 C 
BRANCH  15  19
ATOM     16  S   UNL     1      95.201  80.796  52.607  0.00  0.00    +0.000 S 
ATOM     17  N   UNL     1      92.663  81.144  52.446  0.00  0.00    +0.000 NA
ATOM     18  N   UNL     1      93.287  78.988  53.057  0.00  0.00    +0.000 N 
ATOM     19  C   UNL     1      93.252  82.337  52.045  0.00  0.00    +0.000 A 
ATOM     20  C   UNL     1      94.637  82.335  52.116  0.00  0.00    +0.000 A 
ATOM     21  C   UNL     1      93.579  80.250  52.716  0.00  0.00    +0.000 A 
ATOM     22  H   UNL     1      93.994  78.422  53.507  0.00  0.00    +0.000 HD
ATOM     23  H   UNL     1      92.334  78.813  53.349  0.00  0.00    +0.000 HD
ENDBRANCH  15  19
BRANCH  14  24
ATOM     24  O   UNL     1      92.307  85.748  51.302  0.00  0.00    +0.000 OA
ATOM     25  C   UNL     1      92.203  86.708  52.369  0.00  0.00    +0.000 C 
ENDBRANCH  14  24
ENDBRANCH  12  15
ENDBRANCH   5  11
BRANCH   7  27
ATOM     26  OXT UNL     1      86.659  79.890  45.626  0.00  0.00    +0.000 OA
ATOM     27  C   UNL     1      87.750  79.457  45.976  0.00  0.00    +0.000 C 
BRANCH  27  28
ATOM     28  O   UNL     1      87.872  78.237  46.523  0.00  0.00    +0.000 OA
ATOM     29  H   UNL     1      88.654  77.720  46.235  0.00  0.00    +0.000 HD
ENDBRANCH  27  28
ENDBRANCH   7  27
BRANCH   8  30
ATOM     30  C   UNL     1      89.522  79.657  43.576  0.00  0.00    +0.000 C 
BRANCH  30  31
ATOM     31  O   UNL     1      90.710  79.634  42.769  0.00  0.00    +0.000 OA
BRANCH  31  33
ATOM     32  O   UNL     1      89.678  80.084  40.769  0.00  0.00    +0.000 OA
ATOM     33  C   UNL     1      90.617  80.207  41.541  0.00  0.00    +0.000 C 
ATOM     34  C   UNL     1      91.833  81.040  41.270  0.00  0.00    +0.000 C 
ENDBRANCH  31  33
ENDBRANCH  30  31
ENDBRANCH   8  30
TORSDOF 9
ENDMDL
